units metal
dimension 2
boundary p p p
newton on
atom_style atomic

# Read the MAC configuration data file (replace "data.mac" with your file name)
read_data mac40x40.data
Reading data file ...
  orthogonal box = (0 0 0) to (40 40 1)
  reading atoms ...
  610 atoms

# Define the potential for carbon (using AIREBO with CH.airebo potential file)
pair_style airebo 3.0 1 1
pair_coeff * * CH.airebo C
Reading airebo potential file CH.airebo with DATE: 2011-10-25

# Dump atom positions every 2000 steps (adjust as needed)
dump mydump all atom 2000 dump.mac
dump_modify mydump sort id
dump_modify mydump scale no

# Constrain the system to 2D
fix 4 all enforce2d

# Allow the simulation box to relax isotropically (set pressure to zero)
fix 5 all box/relax iso 0.0

# First minimization of the structure
minimize 1.0e-8 0 5000 1000000
  update every 1 steps, delay 0 steps, check yes
Step Temp E_pair E_mol TotEng Press Volume
0            0    1082.1564            0    1082.1564     17219315         1600
Loop time of 3.49394 on 36 procs for 5000 steps with 610 atoms

Minimization stats:
  Stopping criterion = max iterations
  Energy initial, next-to-last, final =
  Force two-norm initial, final = 35705.488 60.574658
  Force max component initial, final = 34391.847 13.714728
  Final line search alpha, max atom move = 3.6156079e-06 4.9587078e-05
  Iterations, force evaluations = 5000 5000

# Set a small timestep for accuracy
timestep 0.0001

# Stage 1: Heat from 0 K to 14000 K using a Langevin thermostat
fix 2 all langevin 0 14000 1 3699483
fix 3 all nve
fix 4 all enforce2d
run 1400000
Step Temp E_pair E_mol TotEng Press Volume
5000            0   -2896.0311            0   -2896.0311   -357.27531    1954.9873
Loop time of 562.791 on 36 procs for 1400000 steps with 610 atoms

# Quick minimization after first heating stage
minimize 1.0e-8 0 1 1000000
Step Temp E_pair E_mol TotEng Press Volume
1405000    14414.935   -3068.4844            0   -2311.9941      1025583    1954.9873
Loop time of 0.000572299 on 36 procs for 1 steps with 610 atoms

Minimization stats:
  Stopping criterion = max iterations
  Energy initial, next-to-last, final =
  Force two-norm initial, final = 1037.3905 1019.2797
  Force max component initial, final = 989.86687 970.9479
  Final line search alpha, max atom move = 1.0102369e-07 9.8088736e-05
  Iterations, force evaluations = 1 1

timestep 0.0001

# Stage 2: Hold at 14000 K (no temperature change) to let the system equilibrate
fix 2 all langevin 14000 14000 1 3699483
fix 3 all nve
fix 4 all enforce2d
run 1000000
Step Temp E_pair E_mol TotEng Press Volume
1405001    14414.935   -3068.5922            0   -2312.1019    1017666.9    1955.3783
Loop time of 520.607 on 36 procs for 1000000 steps with 610 atoms

# Quick minimization
minimize 1.0e-8 0 1 1000000
Step Temp E_pair E_mol TotEng Press Volume
2405001    14583.553   -3023.1329            0   -2257.7936    1142027.7    1955.3783
Loop time of 0.000562775 on 36 procs for 1 steps with 610 atoms

Minimization stats:
  Stopping criterion = max iterations
  Energy initial, next-to-last, final =
  Force two-norm initial, final = 1303.9408 1291.6742
  Force max component initial, final = 1256.8996 1244.2485
  Final line search alpha, max atom move = 7.956085e-08 9.8993468e-05
  Iterations, force evaluations = 1 1

timestep 0.0001

# Stage 3: Slowly cool the system from 14000 K down to 300 K
fix 2 all langevin 14000 300 1 3699483
fix 3 all nve
fix 4 all enforce2d
run 150700
Step Temp E_pair E_mol TotEng Press Volume
2405002    14583.553   -3023.2676            0   -2257.9283    1136668.4    1955.7694
Loop time of 64.2787 on 36 procs for 150700 steps with 610 atoms

# Final minimization
minimize 1.0e-8 0 5000 1000000
Step Temp E_pair E_mol TotEng Press Volume
2555702    1252.8351   -3893.3816            0   -3827.6333   -430694.88    1955.7694
Loop time of 0.81791 on 36 procs for 2069 steps with 610 atoms

Minimization stats:
  Stopping criterion = energy tolerance
  Energy initial, next-to-last, final =
  Force two-norm initial, final = 1185.8601 2.9133703
  Force max component initial, final = 1182.9911 1.4927589
  Final line search alpha, max atom move = 5.6734472e-05 8.4690888e-05
  Iterations, force evaluations = 2069 2137

timestep 0.0001

# Stage 4: Equilibrate at 300 K
fix 2 all langevin 300 300 1 3699483
fix 3 all nve
fix 4 all enforce2d
run 1000000
Step Temp E_pair E_mol TotEng Press Volume
2557771    1252.8351   -3980.2126            0   -3914.4643    56516.186    1844.1879
Loop time of 277.668 on 36 procs for 1000000 steps with 610 atoms

# Final minimization if desired
minimize 1.0e-8 0 5000 1000000
Step Temp E_pair E_mol TotEng Press Volume
3557771    276.48026   -3964.7742            0   -3950.2646    16467.705    1844.1879
Loop time of 0.32986 on 36 procs for 982 steps with 610 atoms

Minimization stats:
  Stopping criterion = energy tolerance
  Energy initial, next-to-last, final =
  Force two-norm initial, final = 48.745821 1.1953347
  Force max component initial, final = 10.159022 0.78275352
  Final line search alpha, max atom move = 9.5868888e-05 7.504171e-05
  Iterations, force evaluations = 982 1011
