LAMMPS (7 Jan 2022)
units       metal
dimension   2
boundary    p p p
newton      on
atom_style  atomic
read_data   graphene.dat
Reading data file ...
  orthogonal box = (0 0 -10) to (170.4 169.706 10)
  reading atoms ...
  11040 atoms
fix         f2d all enforce2d
pair_style  airebo 3.0 1 1
pair_coeff  * * CH.airebo C
Reading airebo potential file CH.airebo with DATE: 2011-10-25
timestep    0.0001

# Calculations
compute     peatom all pe/atom
compute pe  all reduce sum c_peatom
# ---
variable    ke equal ke
variable    s equal step
variable    T equal temp
variable    E equal etotal
variable    PEatom equal c_pe/count(all)
variable    Tdamp equal $(100.0*dt) # Avoid wild fluctuations by choosing appropriate damping
variable    Tdamp equal 0.010000000000000000208

# Output
dump        melting  all atom   10000 graphene.lammpstrj
dump        vel all  custom      10000 velocities.txt id vx vy vz
dump_modify melting  scale no
dump_modify melting  sort id
dump_modify vel sort id

# Equilibration - create initial Maxwellian velocities at 50 K
velocity    all create 300.0 12345 mom yes rot yes dist gaussian
fix         1 all nvt temp 300.0 300.0 0.01
run         100000
  update every 1 steps, delay 10 steps, check yes
Step Temp E_pair E_mol TotEng Press
0          300   -81790.341            0   -81504.961    -638050.6
Loop time of 291.492 on 36 procs for 100000 steps with 11040 atoms

# 1: HEAT TO 7000 K
fix         1 all nvt temp 50.0 8175.0 0.01
run         815000
Step Temp E_pair E_mol TotEng Press
100000    302.26472   -81519.595            0    -81232.06   -588086.81
Loop time of 2562.75 on 36 procs for 815000 steps with 11040 atoms

# 2: HOLD
fix         1 all nvt temp 8175.0 8175.0 0.01
run         1000000
Step Temp E_pair E_mol TotEng Press
915000    8161.7028    -74286.58            0   -66522.609    964975.95
Loop time of 3539.55 on 36 procs for 1000000 steps with 11040 atoms

write_data 8175K.data
System init for write_data ...

# Analyze defects
min_style cg
minimize 1.0e-8 0 100000 1000000
Step Temp E_pair E_mol TotEng Press
1915000    8111.2732   -74205.864            0   -66489.866      1000736
Loop time of 0.988696 on 36 procs for 127 steps with 11040 atoms

Minimization stats:
  Stopping criterion = energy tolerance
  Energy initial, next-to-last, final =
  Force two-norm initial, final = 1225.3711 2.0017956
  Force max component initial, final = 85.036574 0.92883964
  Final line search alpha, max atom move = 0.18687256 0.17357464
  Iterations, force evaluations = 127 285

run 0
Step Temp E_pair E_mol TotEng Press
1915127    8111.2732   -81715.441            0   -73999.442    -210828.4
Loop time of 1.42698e-05 on 36 procs for 0 steps with 11040 atoms

write_data 8175K_min.data
System init for write_data ...
